/*--------------------------------*- C++ -*----------------------------------*\
  =========                 |
  \\      /  F ield         | OpenFOAM: The Open Source CFD Toolbox
   \\    /   O peration     | Website:  https://openfoam.org
    \\  /    A nd           | Version:  8
     \\/     M anipulation  |
\*---------------------------------------------------------------------------*/
FoamFile
{
    version     2.0;
    format      ascii;
    class       volVectorField;
    location    "0";
    object      momentum;
}
// * * * * * * * * * * * * * * * * * * * * * * * * * * * * * * * * * * * * * //

dimensions      [1 -2 -1 0 0 0 0];

internalField   uniform (0 0 6.68e-11);

boundaryField
{
    leftBoundary
    {
        type            calculated;
        value           uniform (0 0 6.68e-11);
    }
    rightBoundary
    {
        type            calculated;
        value           uniform (0 0 6.68e-11);
    }
    emptyBoundary
    {
        type            empty;
    }
}

// ************************************************************************* //
