/*--------------------------------*- C++ -*----------------------------------*\
  =========                 |
  \\      /  F ield         | OpenFOAM: The Open Source CFD Toolbox
   \\    /   O peration     | Website:  https://openfoam.org
    \\  /    A nd           | Version:  8
     \\/     M anipulation  |
\*---------------------------------------------------------------------------*/
FoamFile
{
    version     2.0;
    format      ascii;
    class       volScalarField;
    location    "0";
    object      rhoM;
}
// * * * * * * * * * * * * * * * * * * * * * * * * * * * * * * * * * * * * * //

dimensions      [1 -3 0 0 0 0 0];

internalField   uniform (0 0 5.01e-9); // 5.01e-9 one dimensional

boundaryField
{
    leftBoundary
    {
        type            calculated;
        value           uniform (0 0 5.01e-9);
    }
    rightBoundary
    {
        type            calculated;
        value           uniform (0 0 5.01e-9);
    }
    emptyBoundary
    {
        type            empty;
    }
}


// ************************************************************************* //
